Version 4
SHEET 1 1192 680
WIRE 416 -16 208 -16
WIRE 592 -16 416 -16
WIRE 768 -16 592 -16
WIRE 976 -16 768 -16
WIRE 208 48 208 -16
WIRE 416 48 416 -16
WIRE 768 48 768 -16
WIRE 976 48 976 -16
WIRE 416 144 416 128
WIRE 640 144 416 144
WIRE 976 144 976 128
WIRE 1008 144 976 144
WIRE 1120 144 1072 144
WIRE 416 160 416 144
WIRE 416 160 320 160
WIRE 976 160 976 144
WIRE 976 160 880 160
WIRE 32 208 -128 208
WIRE 128 208 112 208
WIRE 208 208 208 128
WIRE 208 208 192 208
WIRE 256 208 208 208
WIRE 640 208 640 144
WIRE 688 208 640 208
WIRE 768 208 768 128
WIRE 768 208 752 208
WIRE 816 208 768 208
WIRE -128 256 -128 208
WIRE 416 256 320 256
WIRE 976 256 880 256
WIRE 416 272 416 256
WIRE 496 272 416 272
WIRE 208 304 208 208
WIRE 416 304 416 272
WIRE 496 304 496 272
WIRE 768 304 768 208
WIRE 976 304 976 256
WIRE 416 400 416 384
WIRE 496 400 496 368
WIRE 496 400 416 400
WIRE 208 432 208 384
WIRE 416 432 416 400
WIRE 416 432 208 432
WIRE 768 432 768 384
WIRE 800 432 768 432
WIRE 976 432 976 384
WIRE 976 432 800 432
FLAG 800 432 0
FLAG 416 432 0
FLAG -128 336 0
FLAG 592 64 0
FLAG 1120 144 Vout
SYMBOL res 128 192 R90
WINDOW 0 0 56 VBottom 2
WINDOW 3 32 56 VTop 2
SYMATTR InstName R1
SYMATTR Value 50
SYMBOL res 224 144 R180
WINDOW 0 36 76 Left 2
WINDOW 3 36 40 Left 2
SYMATTR InstName R2
SYMATTR Value 3k1
SYMBOL res 224 400 R180
WINDOW 0 36 76 Left 2
WINDOW 3 36 40 Left 2
SYMATTR InstName R3
SYMATTR Value 3k3
SYMBOL res 432 144 R180
WINDOW 0 36 76 Left 2
WINDOW 3 36 40 Left 2
SYMATTR InstName R4
SYMATTR Value 75
SYMBOL res 432 400 R180
WINDOW 0 36 76 Left 2
WINDOW 3 36 40 Left 2
SYMATTR InstName R5
SYMATTR Value 1500
SYMBOL npn 256 160 R0
SYMATTR InstName Q1
SYMATTR Value BJT1
SYMBOL cap 480 304 R0
SYMATTR InstName C1
SYMATTR Value 10µ
SYMBOL cap 192 192 R90
WINDOW 0 0 32 VBottom 2
WINDOW 3 32 32 VTop 2
SYMATTR InstName C2
SYMATTR Value 10µ
SYMBOL res 784 144 R180
WINDOW 0 36 76 Left 2
WINDOW 3 36 40 Left 2
SYMATTR InstName R6
SYMATTR Value 13k
SYMBOL res 784 400 R180
WINDOW 0 36 76 Left 2
WINDOW 3 36 40 Left 2
SYMATTR InstName R7
SYMATTR Value 1k3
SYMBOL res 992 144 R180
WINDOW 0 36 76 Left 2
WINDOW 3 36 40 Left 2
SYMATTR InstName R8
SYMATTR Value 300
SYMBOL res 992 400 R180
WINDOW 0 36 76 Left 2
WINDOW 3 36 40 Left 2
SYMATTR InstName R9
SYMATTR Value 50
SYMBOL npn 816 160 R0
SYMATTR InstName Q2
SYMATTR Value BJT2
SYMBOL cap 752 192 R90
WINDOW 0 0 32 VBottom 2
WINDOW 3 32 32 VTop 2
SYMATTR InstName C4
SYMATTR Value 10µ
SYMBOL cap 1072 128 R90
WINDOW 0 0 32 VBottom 2
WINDOW 3 32 32 VTop 2
SYMATTR InstName C3
SYMATTR Value 10µ
SYMBOL voltage 592 -32 R0
SYMATTR InstName V1
SYMATTR Value 10
SYMBOL voltage -128 240 R0
WINDOW 123 0 0 Left 0
WINDOW 39 0 0 Left 0
SYMATTR InstName Vin
SYMATTR Value SINE(0 10m 10k)
TEXT -320 0 Left 2 !.MODEL BJT1 AKO: 2N2222 (Bf=245)
TEXT -320 32 Left 2 !.MODEL BJT2 AKO: 2N2222 (Bf=285)
TEXT -320 64 Left 2 !.tran 1m
